test/data/parser_test_b.raw
0,    100.00, 33, 0, 1, 60.00


0 / END OF BUS DATA, BEGIN LOAD DATA
0 / END OF LOAD DATA, BEGIN FIXED SHUNT DATA
0 / END OF FIXED SHUNT DATA, BEGIN GENERATOR DATA
0 / END OF GENERATOR DATA, BEGIN BRANCH DATA
0 / END OF BRANCH DATA, BEGIN TRANSFORMER DATA
1005,1002,    0,'1 ',1,1,1,0.00000E0,0.00000E0,2,'T2        ',1, 301,1.0000,   0,1.0000,   0,1.0000,   0,1.0000,'            '
  5.21000E-3,1.77370E-1, 100.00, 1
  1.025000, 115.000,   0.000,  84.00,  84.00,  84.00,0,     0,1.500000,0.500000,1.500000,0.500000,9999, 0, 0.00000, 0.00000,  0.000
  1.000000,  13.800
Q